results/2026-03-18/bilevel_comparisons_single_period/solution_bus_motivation_c_equality_min.csv
bus_id,vm_avg,z_voltage
1,1.019520893625357,1.0
2,1.0195209043947653,1.0
3,0.0,0.0
4,1.0176085524149514,1.0
5,0.0,0.0
6,1.03,1.0
7,1.0186173010465163,1.0
8,1.0212210143805274,1.0
9,1.0212210143805274,1.0
10,0.0,0.0
11,1.018859175375682,1.0
12,0.0,0.0
13,1.019520893625357,1.0
14,1.0204916371827764,1.0
15,0.0,0.0
16,0.0,0.0
17,1.0186173010465163,1.0
18,1.019520893625357,1.0
19,1.0212210143805274,1.0
20,0.0,0.0
